\begin{thebibliography}{}

\bibitem [\protect \citeauthoryear {%
Audouin%
\ \protect \BOthers {.}}{%
Audouin%
\ \protect \BOthers {.}}{%
{\protect \APACyear {2020}}%
}]{%
audouin2020introducing}
\APACinsertmetastar {%
audouin2020introducing}%
\begin{APACrefauthors}%
Audouin, Y.%
, Benson, T.%
, Delinares, M.%
, Fontaine, J.%
, Glander, B.%
, Huybrechts, N.%
\BDBL {}Walther, R.%
\end{APACrefauthors}%
\unskip\
\newblock
\APACrefYearMonthDay{2020}{{\APACmonth{01}}}{}.
\newblock
\APACrefbtitle {Introducing {{GAIA}}, the Brand New Sediment Transport Module
  of the {{TELEMAC-MASCARET}} System.} {Introducing {{GAIA}}, the brand new
  sediment transport module of the {{TELEMAC-MASCARET}} system.}
\newblock
\APACaddressPublisher{}{Zenodo}.
\newblock
\begin{APACrefDOI} \doi{10.5281/zenodo.3611600} \end{APACrefDOI}
\PrintBackRefs{\CurrentBib}

\bibitem [\protect \citeauthoryear {%
Beckers%
\ \protect \BOthers {.}}{%
Beckers%
\ \protect \BOthers {.}}{%
{\protect \APACyear {2020}}%
}]{%
beckers2020bayesian}
\APACinsertmetastar {%
beckers2020bayesian}%
\begin{APACrefauthors}%
Beckers, F.%
, Heredia, A.%
, Noack, M.%
, Nowak, W.%
, Wieprecht, S.%
\BCBL {}\ \BBA {} Oladyshkin, S.%
\end{APACrefauthors}%
\unskip\
\newblock
\APACrefYearMonthDay{2020}{{\APACmonth{07}}}{}.
\newblock
{\BBOQ}\APACrefatitle {Bayesian {{Calibration}} and {{Validation}} of a
  {{Large}}-{{Scale}} and {{Time}}-{{Demanding Sediment Transport Model}}}
  {Bayesian {{Calibration}} and {{Validation}} of a {{Large}}-{{Scale}} and
  {{Time}}-{{Demanding Sediment Transport Model}}}.{\BBCQ}
\newblock
\APACjournalVolNumPages{Water Resources Research}{56}{7}{}.
\newblock
\begin{APACrefDOI} \doi{10.1029/2019WR026966} \end{APACrefDOI}
\PrintBackRefs{\CurrentBib}

\bibitem [\protect \citeauthoryear {%
Beckers%
, Noack%
\BCBL {}\ \BBA {} Wieprecht%
}{%
Beckers%
\ \protect \BOthers {.}}{%
{\protect \APACyear {2018}}%
}]{%
beckers2018uncertainty}
\APACinsertmetastar {%
beckers2018uncertainty}%
\begin{APACrefauthors}%
Beckers, F.%
, Noack, M.%
\BCBL {}\ \BBA {} Wieprecht, S.%
\end{APACrefauthors}%
\unskip\
\newblock
\APACrefYearMonthDay{2018}{}{}.
\newblock
{\BBOQ}\APACrefatitle {Uncertainty Analysis of a {{2D}} Sediment Transport
  Model: An Example of the {{Lower River Salzach}}} {Uncertainty analysis of a
  {{2D}} sediment transport model: An example of the {{Lower River
  Salzach}}}.{\BBCQ}
\newblock
\APACjournalVolNumPages{Journal of Soils and Sediments}{18}{10}{3133--3144}.
\newblock
\begin{APACrefDOI} \doi{10.1007/s11368-017-1816-z} \end{APACrefDOI}
\PrintBackRefs{\CurrentBib}

\bibitem [\protect \citeauthoryear {%
Bel%
, Jodeau%
, Tassi%
, Claude%
\BCBL {}\ \BBA {} Haddad%
}{%
Bel%
\ \protect \BOthers {.}}{%
{\protect \APACyear {2020}}%
}]{%
bel2020calibration}
\APACinsertmetastar {%
bel2020calibration}%
\begin{APACrefauthors}%
Bel, C.%
, Jodeau, M.%
, Tassi, P.%
, Claude, N.%
\BCBL {}\ \BBA {} Haddad, H.%
\end{APACrefauthors}%
\unskip\
\newblock
\APACrefYearMonthDay{2020}{{\APACmonth{01}}}{}.
\newblock
\APACrefbtitle {Calibration and Validation Strategy for {{2D}} Hydrodynamic
  Modelling : Application to Morphodynamics of a Gravel Bed River with
  Suspended Sediments.} {Calibration and validation strategy for {{2D}}
  hydrodynamic modelling : Application to morphodynamics of a gravel bed river
  with suspended sediments.}
\newblock
\APACaddressPublisher{}{Zenodo}.
\newblock
\begin{APACrefDOI} \doi{10.5281/zenodo.3611515} \end{APACrefDOI}
\PrintBackRefs{\CurrentBib}

\bibitem [\protect \citeauthoryear {%
Bonilla%
, Chai%
\BCBL {}\ \BBA {} Williams%
}{%
Bonilla%
\ \protect \BOthers {.}}{%
{\protect \APACyear {2007}}%
}]{%
bonilla2007multitask}
\APACinsertmetastar {%
bonilla2007multitask}%
\begin{APACrefauthors}%
Bonilla, E\BPBI V.%
, Chai, K.%
\BCBL {}\ \BBA {} Williams, C.%
\end{APACrefauthors}%
\unskip\
\newblock
\APACrefYearMonthDay{2007}{}{}.
\newblock
{\BBOQ}\APACrefatitle {Multi-Task {{Gaussian Process Prediction}}} {Multi-task
  {{Gaussian Process Prediction}}}.{\BBCQ}
\newblock
\BIn{} \APACrefbtitle {Advances in {{Neural Information Processing Systems}}}
  {Advances in {{Neural Information Processing Systems}}}\ (\BVOL~20).
\newblock
\APACaddressPublisher{}{Curran Associates, Inc.}
\PrintBackRefs{\CurrentBib}

\bibitem [\protect \citeauthoryear {%
Buffington%
\ \BBA {} Montgomery%
}{%
Buffington%
\ \BBA {} Montgomery%
}{%
{\protect \APACyear {1999}}%
}]{%
buffington1999effects}
\APACinsertmetastar {%
buffington1999effects}%
\begin{APACrefauthors}%
Buffington, J\BPBI M.%
\BCBT {}\ \BBA {} Montgomery, D\BPBI R.%
\end{APACrefauthors}%
\unskip\
\newblock
\APACrefYearMonthDay{1999}{}{}.
\newblock
{\BBOQ}\APACrefatitle {Effects of Supply on Surface Textures of Gravel-Bed
  Rivers} {Effects of supply on surface textures of gravel-bed rivers}.{\BBCQ}
\newblock
\APACjournalVolNumPages{Water Resources Research}{35}{11}{3523--3530}.
\newblock
\begin{APACrefDOI} \doi{10.1029/1999WR900232} \end{APACrefDOI}
\PrintBackRefs{\CurrentBib}

\bibitem [\protect \citeauthoryear {%
Bunte%
\ \BBA {} Abt%
}{%
Bunte%
\ \BBA {} Abt%
}{%
{\protect \APACyear {2001}}%
}]{%
bunte2001samplinga}
\APACinsertmetastar {%
bunte2001samplinga}%
\begin{APACrefauthors}%
Bunte, K.%
\BCBT {}\ \BBA {} Abt, S\BPBI R.%
\end{APACrefauthors}%
\unskip\
\newblock
\APACrefYearMonthDay{2001}{}{}.
\newblock
\APACrefbtitle {Sampling {{Surface}} and {{Subsurface Particle-Size
  Distributions}} in {{Wadable Gravel-}} and {{Cobble-Bed Streams}} for
  {{Analyses}} in {{Sediment Transport}}, {{Hydraulics}}, and {{Streambed
  Monitoring}}} {Sampling {{Surface}} and {{Subsurface Particle-Size
  Distributions}} in {{Wadable Gravel-}} and {{Cobble-Bed Streams}} for
  {{Analyses}} in {{Sediment Transport}}, {{Hydraulics}}, and {{Streambed
  Monitoring}}}\ \APACbVolEdTR {}{General {{Technical}}\ \BNUM\ RMRS-GTR-74}.
\newblock
\APACaddressInstitution{Fort Collins, CO, USA}{United States Department of
  Agriculture}.
\PrintBackRefs{\CurrentBib}

\bibitem [\protect \citeauthoryear {%
Chow%
}{%
Chow%
}{%
{\protect \APACyear {1959}}%
}]{%
chow1959openchannel}
\APACinsertmetastar {%
chow1959openchannel}%
\begin{APACrefauthors}%
Chow, V\BPBI T.%
\end{APACrefauthors}%
\unskip\
\newblock
\APACrefYear{1959}.
\newblock
\APACrefbtitle {Open-{{Channel Hydraulics}}} {Open-{{Channel Hydraulics}}}.
\newblock
\APACaddressPublisher{Tokyo, Japan}{McGraw-Hill}.
\PrintBackRefs{\CurrentBib}

\bibitem [\protect \citeauthoryear {%
Clare%
, Kramer%
, Cotter%
\BCBL {}\ \BBA {} Piggott%
}{%
Clare%
\ \protect \BOthers {.}}{%
{\protect \APACyear {2022}}%
}]{%
clare2022calibration}
\APACinsertmetastar {%
clare2022calibration}%
\begin{APACrefauthors}%
Clare, M\BPBI C\BPBI A.%
, Kramer, S\BPBI C.%
, Cotter, C\BPBI J.%
\BCBL {}\ \BBA {} Piggott, M\BPBI D.%
\end{APACrefauthors}%
\unskip\
\newblock
\APACrefYearMonthDay{2022}{{\APACmonth{06}}}{}.
\newblock
{\BBOQ}\APACrefatitle {Calibration, Inversion and Sensitivity Analysis for
  Hydro-Morphodynamic Models through the Application of Adjoint Methods}
  {Calibration, inversion and sensitivity analysis for hydro-morphodynamic
  models through the application of adjoint methods}.{\BBCQ}
\newblock
\APACjournalVolNumPages{Computers \& Geosciences}{163}{}{105104}.
\newblock
\begin{APACrefDOI} \doi{10.1016/j.cageo.2022.105104} \end{APACrefDOI}
\PrintBackRefs{\CurrentBib}

\bibitem [\protect \citeauthoryear {%
de {Saint-Venant}%
}{%
de {Saint-Venant}%
}{%
{\protect \APACyear {1871}}%
}]{%
saint-venant1871theorie}
\APACinsertmetastar {%
saint-venant1871theorie}%
\begin{APACrefauthors}%
de {Saint-Venant}, A\BPBI J\BPBI C\BPBI B.%
\end{APACrefauthors}%
\unskip\
\newblock
\APACrefYearMonthDay{1871}{}{}.
\newblock
{\BBOQ}\APACrefatitle {Th{\'e}orie Du Mouvement Non Permanent Des Eaux, Avec
  Application Aux Crues Des Rivi{\`e}res et a l'introduction de Mar{\'e}es Dans
  Leurs Lits} {Th{\'e}orie du mouvement non permanent des eaux, avec
  application aux crues des rivi{\`e}res et a l'introduction de mar{\'e}es dans
  leurs lits}.{\BBCQ}
\newblock
\APACjournalVolNumPages{Comptes Rendus de l'Acad{\'e}mie des
  Sciences}{73}{}{147--154, 237--240}.
\PrintBackRefs{\CurrentBib}

\bibitem [\protect \citeauthoryear {%
Dietrich%
\ \protect \BOthers {.}}{%
Dietrich%
\ \protect \BOthers {.}}{%
{\protect \APACyear {2005}}%
}]{%
dietrich2005sediment}
\APACinsertmetastar {%
dietrich2005sediment}%
\begin{APACrefauthors}%
Dietrich, W.%
, Nelson, P.%
, Yager, E.%
, Venditti, J.%
, Lamb, M.%
\BCBL {}\ \BBA {} Collins, L.%
\end{APACrefauthors}%
\unskip\
\newblock
\APACrefYearMonthDay{2005}{{\APACmonth{01}}}{}.
\newblock
{\BBOQ}\APACrefatitle {Sediment Patches, Sediment Supply, and Channel
  Morphology} {Sediment patches, sediment supply, and channel
  morphology}.{\BBCQ}
\newblock
\APACjournalVolNumPages{River Coastal and Estuarine Morphodynamics}{}{}{}.
\newblock
\begin{APACrefDOI} \doi{10.1201/9781439833896.ch11} \end{APACrefDOI}
\PrintBackRefs{\CurrentBib}

\bibitem [\protect \citeauthoryear {%
Exner%
}{%
Exner%
}{%
{\protect \APACyear {1925}}%
}]{%
exner1925uber}
\APACinsertmetastar {%
exner1925uber}%
\begin{APACrefauthors}%
Exner, F\BPBI M.%
\end{APACrefauthors}%
\unskip\
\newblock
\APACrefYearMonthDay{1925}{}{}.
\newblock
{\BBOQ}\APACrefatitle {{\"U}ber Die {{Wechselwirkung}} Zwischen {{Wasser}} Und
  {{Geschiebe}} in {{Fl{\"u}ssen}} [{{About}} the {{Interdependency}} of
  {{Water}} and {{Bed}} Load in {{Rivers}}]} {{\"U}ber die {{Wechselwirkung}}
  zwischen {{Wasser}} und {{Geschiebe}} in {{Fl{\"u}ssen}} [{{About}} the
  {{Interdependency}} of {{Water}} and {{Bed}} load in {{Rivers}}]}.{\BBCQ}
\newblock
\APACjournalVolNumPages{Akademie der Wissenschaften in Wien, math.-naturw.
  Klasse, Sitzungsberichte, Abt. IIa}{134}{}{165--203}.
\PrintBackRefs{\CurrentBib}

\bibitem [\protect \citeauthoryear {%
Ferguson%
}{%
Ferguson%
}{%
{\protect \APACyear {2007}}%
}]{%
ferguson2007flow}
\APACinsertmetastar {%
ferguson2007flow}%
\begin{APACrefauthors}%
Ferguson, R.%
\end{APACrefauthors}%
\unskip\
\newblock
\APACrefYearMonthDay{2007}{}{}.
\newblock
{\BBOQ}\APACrefatitle {Flow Resistance Equations for Gravel- and Boulder-Bed
  Streams} {Flow resistance equations for gravel- and boulder-bed
  streams}.{\BBCQ}
\newblock
\APACjournalVolNumPages{Water Resources Research}{43}{5}{}.
\newblock
\begin{APACrefDOI} \doi{10.1029/2006WR005422} \end{APACrefDOI}
\PrintBackRefs{\CurrentBib}

\bibitem [\protect \citeauthoryear {%
Ferreira%
, Pedemonte%
\BCBL {}\ \BBA {} Torres%
}{%
Ferreira%
\ \protect \BOthers {.}}{%
{\protect \APACyear {2022}}%
}]{%
ferreira2022multioutput}
\APACinsertmetastar {%
ferreira2022multioutput}%
\begin{APACrefauthors}%
Ferreira, J.%
, Pedemonte, M.%
\BCBL {}\ \BBA {} Torres, A\BPBI I.%
\end{APACrefauthors}%
\unskip\
\newblock
\APACrefYearMonthDay{2022}{{\APACmonth{01}}}{}.
\newblock
{\BBOQ}\APACrefatitle {A Multi-Output Machine Learning Approach for Generation
  of Surrogate Models in Process Engineering} {A multi-output machine learning
  approach for generation of surrogate models in process engineering}.{\BBCQ}
\newblock
\BIn{} Y.~Yamashita\ \BBA {} M.~Kano\ (\BEDS), \APACrefbtitle {Computer {{Aided
  Chemical Engineering}}} {Computer {{Aided Chemical Engineering}}}\ (\BVOL~49,
  \BPGS\ 1771--1776).
\newblock
\APACaddressPublisher{}{Elsevier}.
\newblock
\begin{APACrefDOI} \doi{10.1016/B978-0-323-85159-6.50295-5} \end{APACrefDOI}
\PrintBackRefs{\CurrentBib}

\bibitem [\protect \citeauthoryear {%
Follett%
, Schalko%
\BCBL {}\ \BBA {} Nepf%
}{%
Follett%
\ \protect \BOthers {.}}{%
{\protect \APACyear {2020}}%
}]{%
follett2020momentum}
\APACinsertmetastar {%
follett2020momentum}%
\begin{APACrefauthors}%
Follett, E.%
, Schalko, I.%
\BCBL {}\ \BBA {} Nepf, H.%
\end{APACrefauthors}%
\unskip\
\newblock
\APACrefYearMonthDay{2020}{}{}.
\newblock
{\BBOQ}\APACrefatitle {Momentum and {{Energy Predict}} the {{Backwater Rise
  Generated}} by a {{Large Wood Jam}}} {Momentum and {{Energy Predict}} the
  {{Backwater Rise Generated}} by a {{Large Wood Jam}}}.{\BBCQ}
\newblock
\APACjournalVolNumPages{Geophysical Research Letters}{47}{17}{e2020GL089346
  1-10}.
\newblock
\begin{APACrefDOI} \doi{10.1029/2020GL089346} \end{APACrefDOI}
\PrintBackRefs{\CurrentBib}

\bibitem [\protect \citeauthoryear {%
Galland%
, Goutal%
\BCBL {}\ \BBA {} Hervouet%
}{%
Galland%
\ \protect \BOthers {.}}{%
{\protect \APACyear {1991}}%
}]{%
galland1991telemac}
\APACinsertmetastar {%
galland1991telemac}%
\begin{APACrefauthors}%
Galland, J\BHBI C.%
, Goutal, N.%
\BCBL {}\ \BBA {} Hervouet, J\BHBI M.%
\end{APACrefauthors}%
\unskip\
\newblock
\APACrefYearMonthDay{1991}{{\APACmonth{06}}}{}.
\newblock
{\BBOQ}\APACrefatitle {{{TELEMAC}}: {{A}} New Numerical Model for Solving
  Shallow Water Equations} {{{TELEMAC}}: {{A}} new numerical model for solving
  shallow water equations}.{\BBCQ}
\newblock
\APACjournalVolNumPages{Advances in Water Resources}{14}{3}{138--148}.
\newblock
\begin{APACrefDOI} \doi{10.1016/0309-1708(91)90006-A} \end{APACrefDOI}
\PrintBackRefs{\CurrentBib}

\bibitem [\protect \citeauthoryear {%
Garcia%
, Schnauder%
\BCBL {}\ \BBA {} Pusch%
}{%
Garcia%
\ \protect \BOthers {.}}{%
{\protect \APACyear {2012}}%
}]{%
garcia2012complex}
\APACinsertmetastar {%
garcia2012complex}%
\begin{APACrefauthors}%
Garcia, X\BHBI F.%
, Schnauder, I.%
\BCBL {}\ \BBA {} Pusch, M\BPBI T.%
\end{APACrefauthors}%
\unskip\
\newblock
\APACrefYearMonthDay{2012}{{\APACmonth{04}}}{}.
\newblock
{\BBOQ}\APACrefatitle {Complex Hydromorphology of Meanders Can Support Benthic
  Invertebrate Diversity in Rivers} {Complex hydromorphology of meanders can
  support benthic invertebrate diversity in rivers}.{\BBCQ}
\newblock
\APACjournalVolNumPages{Hydrobiologia}{685}{1}{49--68}.
\newblock
\begin{APACrefDOI} \doi{10.1007/s10750-011-0905-z} \end{APACrefDOI}
\PrintBackRefs{\CurrentBib}

\bibitem [\protect \citeauthoryear {%
Grabowski%
\ \protect \BOthers {.}}{%
Grabowski%
\ \protect \BOthers {.}}{%
{\protect \APACyear {2019}}%
}]{%
grabowski2019current}
\APACinsertmetastar {%
grabowski2019current}%
\begin{APACrefauthors}%
Grabowski, R\BPBI C.%
, Gurnell, A\BPBI M.%
, {Burgess-Gamble}, L.%
, England, J.%
, Holland, D.%
, Klaar, M\BPBI J.%
\BDBL {}Wharton, G.%
\end{APACrefauthors}%
\unskip\
\newblock
\APACrefYearMonthDay{2019}{}{}.
\newblock
{\BBOQ}\APACrefatitle {The Current State of the Use of Large Wood in River
  Restoration and Management} {The current state of the use of large wood in
  river restoration and management}.{\BBCQ}
\newblock
\APACjournalVolNumPages{Water and Environment Journal}{33}{3}{366--377}.
\newblock
\begin{APACrefDOI} \doi{10.1111/wej.12465} \end{APACrefDOI}
\PrintBackRefs{\CurrentBib}

\bibitem [\protect \citeauthoryear {%
Grooten%
\ \BBA {} Almond%
}{%
Grooten%
\ \BBA {} Almond%
}{%
{\protect \APACyear {2018}}%
}]{%
grooten2018living}
\APACinsertmetastar {%
grooten2018living}%
\begin{APACrefauthors}%
Grooten, M.%
\BCBT {}\ \BBA {} Almond, R.%
\end{APACrefauthors}%
\unskip\
\newblock
\APACrefYear{2018}.
\newblock
\APACrefbtitle {Living Planet Report - 2018: Aiming Higher.} {Living planet
  report - 2018: Aiming higher.}
\newblock
\APACaddressPublisher{Switzerland}{WWF International}.
\PrintBackRefs{\CurrentBib}

\bibitem [\protect \citeauthoryear {%
Guerrero%
, Di~Federico%
\BCBL {}\ \BBA {} Lamberti%
}{%
Guerrero%
\ \protect \BOthers {.}}{%
{\protect \APACyear {2012}}%
}]{%
guerrero2012calibration}
\APACinsertmetastar {%
guerrero2012calibration}%
\begin{APACrefauthors}%
Guerrero, M.%
, Di~Federico, V.%
\BCBL {}\ \BBA {} Lamberti, A.%
\end{APACrefauthors}%
\unskip\
\newblock
\APACrefYearMonthDay{2012}{{\APACmonth{12}}}{}.
\newblock
{\BBOQ}\APACrefatitle {Calibration of a 2-{{D}} Morphodynamic Model Using
  Water--Sediment Flux Maps Derived from an {{ADCP}} Recording} {Calibration of
  a 2-{{D}} morphodynamic model using water--sediment flux maps derived from an
  {{ADCP}} recording}.{\BBCQ}
\newblock
\APACjournalVolNumPages{Journal of Hydroinformatics}{15}{3}{813--828}.
\newblock
\begin{APACrefDOI} \doi{10.2166/hydro.2012.126} \end{APACrefDOI}
\PrintBackRefs{\CurrentBib}

\bibitem [\protect \citeauthoryear {%
Hervouet%
}{%
Hervouet%
}{%
{\protect \APACyear {2007}}%
}]{%
hervouet2007hydrodynamics}
\APACinsertmetastar {%
hervouet2007hydrodynamics}%
\begin{APACrefauthors}%
Hervouet, J\BHBI M.%
\end{APACrefauthors}%
\unskip\
\newblock
\APACrefYear{2007}.
\newblock
\APACrefbtitle {Hydrodynamics of {{Free Surface Flows}}: {{Modelling}} with the
  {{Finite Element Method}}} {Hydrodynamics of {{Free Surface Flows}}:
  {{Modelling}} with the {{Finite Element Method}}}\ (\PrintOrdinal{1.
  edition}\ \BEd).
\newblock
\APACaddressPublisher{Chichester ; Hoboken, N.J}{Wiley}.
\PrintBackRefs{\CurrentBib}

\bibitem [\protect \citeauthoryear {%
Hervouet%
\ \BBA {} Ata%
}{%
Hervouet%
\ \BBA {} Ata%
}{%
{\protect \APACyear {2020}}%
}]{%
hervouet2020telemac2d}
\APACinsertmetastar {%
hervouet2020telemac2d}%
\begin{APACrefauthors}%
Hervouet, J\BPBI M.%
\BCBT {}\ \BBA {} Ata, R.%
\end{APACrefauthors}%
\unskip\
\newblock
\APACrefYearMonthDay{2020}{}{}.
\newblock
\APACrefbtitle {Telemac2d {{User Manual}}} {Telemac2d {{User Manual}}}\
  \APACbVolEdTR{}{\BTR{}}.
\newblock
\APACaddressInstitution{}{EDF-R\&D}.
\PrintBackRefs{\CurrentBib}

\bibitem [\protect \citeauthoryear {%
Kail%
, Hering%
, Muhar%
, Gerhard%
\BCBL {}\ \BBA {} Preis%
}{%
Kail%
\ \protect \BOthers {.}}{%
{\protect \APACyear {2007}}%
}]{%
kail2007use}
\APACinsertmetastar {%
kail2007use}%
\begin{APACrefauthors}%
Kail, J.%
, Hering, D.%
, Muhar, S.%
, Gerhard, M.%
\BCBL {}\ \BBA {} Preis, S.%
\end{APACrefauthors}%
\unskip\
\newblock
\APACrefYearMonthDay{2007}{}{}.
\newblock
{\BBOQ}\APACrefatitle {The Use of Large Wood in Stream Restoration: Experiences
  from 50 Projects in {{Germany}} and {{Austria}}} {The use of large wood in
  stream restoration: Experiences from 50 projects in {{Germany}} and
  {{Austria}}}.{\BBCQ}
\newblock
\APACjournalVolNumPages{Journal of Applied Ecology}{44}{6}{1145--1155}.
\newblock
\begin{APACrefDOI} \doi{10.1111/j.1365-2664.2007.01401.x} \end{APACrefDOI}
\PrintBackRefs{\CurrentBib}

\bibitem [\protect \citeauthoryear {%
Kim%
\ \BBA {} Park%
}{%
Kim%
\ \BBA {} Park%
}{%
{\protect \APACyear {2016}}%
}]{%
kim2016stepwise}
\APACinsertmetastar {%
kim2016stepwise}%
\begin{APACrefauthors}%
Kim, Y\BHBI J.%
\BCBT {}\ \BBA {} Park, C\BHBI S.%
\end{APACrefauthors}%
\unskip\
\newblock
\APACrefYearMonthDay{2016}{}{}.
\newblock
{\BBOQ}\APACrefatitle {Stepwise Deterministic and Stochastic Calibration of an
  Energy Simulation Model for an Existing Building} {Stepwise deterministic and
  stochastic calibration of an energy simulation model for an existing
  building}.{\BBCQ}
\newblock
\APACjournalVolNumPages{Energy and Buildings}{C}{133}{455--468}.
\newblock
\begin{APACrefDOI} \doi{10.1016/j.enbuild.2016.10.009} \end{APACrefDOI}
\PrintBackRefs{\CurrentBib}

\bibitem [\protect \citeauthoryear {%
Kuhanestani%
}{%
Kuhanestani%
}{%
{\protect \APACyear {2022}}%
}]{%
kuhanestani2022hydraulic}
\APACinsertmetastar {%
kuhanestani2022hydraulic}%
\begin{APACrefauthors}%
Kuhanestani, P\BPBI K.%
\end{APACrefauthors}%
\unskip\
\newblock
\APACrefYearMonthDay{2022}{{\APACmonth{11}}}{}.
\newblock
\APACrefbtitle {Hydraulic River Modelling Approaches to Link High Flow and Low
  Flow Conditions: {{Literature}} Report} {Hydraulic river modelling approaches
  to link high flow and low flow conditions: {{Literature}} report}\
  \APACbVolEdTR{}{\BTR{}\ \BNUM\ 2022R-002/WEM-002}.
\newblock
\APACaddressInstitution{Enschede}{University of Twente}.
\PrintBackRefs{\CurrentBib}

\bibitem [\protect \citeauthoryear {%
Li%
\ \BBA {} Millar%
}{%
Li%
\ \BBA {} Millar%
}{%
{\protect \APACyear {2011}}%
}]{%
li2011twodimensional}
\APACinsertmetastar {%
li2011twodimensional}%
\begin{APACrefauthors}%
Li, S\BPBI S.%
\BCBT {}\ \BBA {} Millar, R\BPBI G.%
\end{APACrefauthors}%
\unskip\
\newblock
\APACrefYearMonthDay{2011}{}{}.
\newblock
{\BBOQ}\APACrefatitle {A Two-Dimensional Morphodynamic Model of Gravel-Bed
  River with Floodplain Vegetation} {A two-dimensional morphodynamic model of
  gravel-bed river with floodplain vegetation}.{\BBCQ}
\newblock
\APACjournalVolNumPages{Earth Surface Processes and
  Landforms}{36}{2}{190--202}.
\newblock
\begin{APACrefDOI} \doi{10.1002/esp.2033} \end{APACrefDOI}
\PrintBackRefs{\CurrentBib}

\bibitem [\protect \citeauthoryear {%
Lokin%
, Warmink%
\BCBL {}\ \BBA {} Hulscher%
}{%
Lokin%
\ \protect \BOthers {.}}{%
{\protect \APACyear {2023}}%
}]{%
lokin2023effect}
\APACinsertmetastar {%
lokin2023effect}%
\begin{APACrefauthors}%
Lokin, L\BPBI R.%
, Warmink, J\BPBI J.%
\BCBL {}\ \BBA {} Hulscher, S\BPBI J\BPBI M\BPBI H.%
\end{APACrefauthors}%
\unskip\
\newblock
\APACrefYearMonthDay{2023}{}{}.
\newblock
{\BBOQ}\APACrefatitle {The {{Effect}} of {{Sediment Transport Models}} on
  {{Simulating River Dune Dynamics}}} {The {{Effect}} of {{Sediment Transport
  Models}} on {{Simulating River Dune Dynamics}}}.{\BBCQ}
\newblock
\APACjournalVolNumPages{Water Resources Research}{59}{12}{e2023WR034607}.
\newblock
\begin{APACrefDOI} \doi{10.1029/2023WR034607} \end{APACrefDOI}
\PrintBackRefs{\CurrentBib}

\bibitem [\protect \citeauthoryear {%
Marriott%
\ \BBA {} Jayaratne%
}{%
Marriott%
\ \BBA {} Jayaratne%
}{%
{\protect \APACyear {2010}}%
}]{%
marriott2010hydraulic}
\APACinsertmetastar {%
marriott2010hydraulic}%
\begin{APACrefauthors}%
Marriott, M.%
\BCBT {}\ \BBA {} Jayaratne, R.%
\end{APACrefauthors}%
\unskip\
\newblock
\APACrefYearMonthDay{2010}{{\APACmonth{01}}}{}.
\newblock
{\BBOQ}\APACrefatitle {Hydraulic Roughness - Links between {{Manning}}'s
  Coefficient, {{Nikuradse}}'s Equivalent Sand Roughness and Bed Grain Size}
  {Hydraulic roughness - links between {{Manning}}'s coefficient,
  {{Nikuradse}}'s equivalent sand roughness and bed grain size}.{\BBCQ}
\newblock
\BIn{} \APACrefbtitle {Advances in {{Computing}} and {{Technology}} 2010}
  {Advances in {{Computing}} and {{Technology}} 2010}\ (\BPGS\ 27--32).
\newblock
\APACaddressPublisher{London, UK}{{University of East London, School of
  Architecture Computing and Engineering}}.
\PrintBackRefs{\CurrentBib}

\bibitem [\protect \citeauthoryear {%
{Meyer-Peter}%
\ \BBA {} M{\"u}ller%
}{%
{Meyer-Peter}%
\ \BBA {} M{\"u}ller%
}{%
{\protect \APACyear {1948}}%
}]{%
meyer-peter1948formulas}
\APACinsertmetastar {%
meyer-peter1948formulas}%
\begin{APACrefauthors}%
{Meyer-Peter}, E.%
\BCBT {}\ \BBA {} M{\"u}ller, R.%
\end{APACrefauthors}%
\unskip\
\newblock
\APACrefYearMonthDay{1948}{}{}.
\newblock
{\BBOQ}\APACrefatitle {Formulas for {{Bed-Load}} Transport} {Formulas for
  {{Bed-Load}} transport}.{\BBCQ}
\newblock
\BIn{} \APACrefbtitle {{{IAHSR}}, Appendix 2} {{{IAHSR}}, appendix 2}\ (\BVOL\
  2nd meeting, \BPGS\ 39--65).
\PrintBackRefs{\CurrentBib}

\bibitem [\protect \citeauthoryear {%
Mishra%
\ \BBA {} Inoue%
}{%
Mishra%
\ \BBA {} Inoue%
}{%
{\protect \APACyear {2020}}%
}]{%
mishra2020alluvial}
\APACinsertmetastar {%
mishra2020alluvial}%
\begin{APACrefauthors}%
Mishra, J.%
\BCBT {}\ \BBA {} Inoue, T.%
\end{APACrefauthors}%
\unskip\
\newblock
\APACrefYearMonthDay{2020}{{\APACmonth{08}}}{}.
\newblock
{\BBOQ}\APACrefatitle {Alluvial Cover on Bedrock Channels: Applicability of
  Existing Models} {Alluvial cover on bedrock channels: Applicability of
  existing models}.{\BBCQ}
\newblock
\APACjournalVolNumPages{Earth Surface Dynamics}{8}{3}{695--716}.
\newblock
\begin{APACrefDOI} \doi{10.5194/esurf-8-695-2020} \end{APACrefDOI}
\PrintBackRefs{\CurrentBib}

\bibitem [\protect \citeauthoryear {%
Mohammadi%
, Kopmann%
, Guthke%
, Oladyshkin%
\BCBL {}\ \BBA {} Nowak%
}{%
Mohammadi%
\ \protect \BOthers {.}}{%
{\protect \APACyear {2018}}%
}]{%
mohammadi2018bayesian}
\APACinsertmetastar {%
mohammadi2018bayesian}%
\begin{APACrefauthors}%
Mohammadi, F.%
, Kopmann, R.%
, Guthke, A.%
, Oladyshkin, S.%
\BCBL {}\ \BBA {} Nowak, W.%
\end{APACrefauthors}%
\unskip\
\newblock
\APACrefYearMonthDay{2018}{}{}.
\newblock
{\BBOQ}\APACrefatitle {Bayesian Selection of Hydro-Morphodynamic Models under
  Computational Time Constraints} {Bayesian selection of hydro-morphodynamic
  models under computational time constraints}.{\BBCQ}
\newblock
\APACjournalVolNumPages{Advances in Water Resources}{117}{}{53--64}.
\newblock
\begin{APACrefDOI} \doi{10.1016/j.advwatres.2018.05.007} \end{APACrefDOI}
\PrintBackRefs{\CurrentBib}

\bibitem [\protect \citeauthoryear {%
Mouris%
\ \protect \BOthers {.}}{%
Mouris%
\ \protect \BOthers {.}}{%
{\protect \APACyear {2023}}%
}]{%
mouris2023stability}
\APACinsertmetastar {%
mouris2023stability}%
\begin{APACrefauthors}%
Mouris, K.%
, Acuna~Espinoza, E.%
, Schwindt, S.%
, Mohammadi, F.%
, Haun, S.%
, Wieprecht, S.%
\BCBL {}\ \BBA {} Oladyshkin, S.%
\end{APACrefauthors}%
\unskip\
\newblock
\APACrefYearMonthDay{2023}{{\APACmonth{02}}}{}.
\newblock
{\BBOQ}\APACrefatitle {Stability Criteria for {{Bayesian}} Calibration of
  Reservoir Sedimentation Models} {Stability criteria for {{Bayesian}}
  calibration of reservoir sedimentation models}.{\BBCQ}
\newblock
\APACjournalVolNumPages{Modeling Earth Systems and
  Environment}{9}{}{3643--3661}.
\newblock
\begin{APACrefDOI} \doi{10.1007/s40808-023-01712-7} \end{APACrefDOI}
\PrintBackRefs{\CurrentBib}

\bibitem [\protect \citeauthoryear {%
Negreiros%
, Schwindt%
\BCBL {}\ \BBA {} Wieprecht%
}{%
Negreiros%
\ \protect \BOthers {.}}{%
{\protect \APACyear {2023}}%
}]{%
negreiros2023database}
\APACinsertmetastar {%
negreiros2023database}%
\begin{APACrefauthors}%
Negreiros, B.%
, Schwindt, S.%
\BCBL {}\ \BBA {} Wieprecht, S.%
\end{APACrefauthors}%
\unskip\
\newblock
\APACrefYearMonthDay{2023}{}{}.
\newblock
{\BBOQ}\APACrefatitle {A Database Application Framework for River Ecosystem
  Analysis} {A database application framework for river ecosystem
  analysis}.{\BBCQ}
\newblock
\BIn{} \APACrefbtitle {Conference {{Proceedings}}} {Conference
  {{Proceedings}}}\ (\BPG~1).
\newblock
\APACaddressPublisher{Vienna, Austria}{{International Association for
  Hydro-Environment Engineering and Research (IAHR)}}.
\PrintBackRefs{\CurrentBib}

\bibitem [\protect \citeauthoryear {%
Neuhaus%
\ \BBA {} Mende%
}{%
Neuhaus%
\ \BBA {} Mende%
}{%
{\protect \APACyear {2021}}%
}]{%
neuhaus2021engineered}
\APACinsertmetastar {%
neuhaus2021engineered}%
\begin{APACrefauthors}%
Neuhaus, V.%
\BCBT {}\ \BBA {} Mende, M.%
\end{APACrefauthors}%
\unskip\
\newblock
\APACrefYearMonthDay{2021}{{\APACmonth{01}}}{}.
\newblock
{\BBOQ}\APACrefatitle {Engineered {{Large Wood Structures}} in {{Stream
  Restoration Projects}} in {{Switzerland}}: {{Practice-Based Experiences}}}
  {Engineered {{Large Wood Structures}} in {{Stream Restoration Projects}} in
  {{Switzerland}}: {{Practice-Based Experiences}}}.{\BBCQ}
\newblock
\APACjournalVolNumPages{Water}{13}{18}{2520}.
\newblock
\begin{APACrefDOI} \doi{10.3390/w13182520} \end{APACrefDOI}
\PrintBackRefs{\CurrentBib}

\bibitem [\protect \citeauthoryear {%
Nikuradse%
}{%
Nikuradse%
}{%
{\protect \APACyear {1933}}%
}]{%
nikuradse1933stroemungsgesetze}
\APACinsertmetastar {%
nikuradse1933stroemungsgesetze}%
\begin{APACrefauthors}%
Nikuradse, J.%
\end{APACrefauthors}%
\unskip\
\newblock
\APACrefYearMonthDay{1933}{}{}.
\newblock
{\BBOQ}\APACrefatitle {{Str{\"o}mungsgesetze in rauhen Rohren [Laws of flow in
  rough pipes]}} {{Str{\"o}mungsgesetze in rauhen Rohren [Laws of flow in rough
  pipes]}}.{\BBCQ}
\newblock
\APACjournalVolNumPages{VDI Forschungsheft, Beilage zu 'Forschung auf dem
  Gebiete des Ingenieurwesens'}{Ausgabe B, Band 4}{361}{26}.
\PrintBackRefs{\CurrentBib}

\bibitem [\protect \citeauthoryear {%
Nones%
}{%
Nones%
}{%
{\protect \APACyear {2019}}%
}]{%
nones2019numerical}
\APACinsertmetastar {%
nones2019numerical}%
\begin{APACrefauthors}%
Nones, M.%
\end{APACrefauthors}%
\unskip\
\newblock
\APACrefYearMonthDay{2019}{{\APACmonth{03}}}{}.
\newblock
{\BBOQ}\APACrefatitle {Numerical {{Modelling}} as a {{Support Tool}} for
  {{River Habitat Studies}}: {{An Italian Case Study}}} {Numerical
  {{Modelling}} as a {{Support Tool}} for {{River Habitat Studies}}: {{An
  Italian Case Study}}}.{\BBCQ}
\newblock
\APACjournalVolNumPages{Water}{11}{3}{482}.
\newblock
\begin{APACrefDOI} \doi{10.3390/w11030482} \end{APACrefDOI}
\PrintBackRefs{\CurrentBib}

\bibitem [\protect \citeauthoryear {%
Oberkampf%
, Trucano%
\BCBL {}\ \BBA {} Hirsch%
}{%
Oberkampf%
\ \protect \BOthers {.}}{%
{\protect \APACyear {2004}}%
}]{%
oberkampf2004verification}
\APACinsertmetastar {%
oberkampf2004verification}%
\begin{APACrefauthors}%
Oberkampf, W\BPBI L.%
, Trucano, T\BPBI G.%
\BCBL {}\ \BBA {} Hirsch, C.%
\end{APACrefauthors}%
\unskip\
\newblock
\APACrefYearMonthDay{2004}{{\APACmonth{09}}}{}.
\newblock
{\BBOQ}\APACrefatitle {Verification, Validation, and Predictive Capability in
  Computational Engineering and Physics} {Verification, validation, and
  predictive capability in computational engineering and physics}.{\BBCQ}
\newblock
\APACjournalVolNumPages{Applied Mechanics Reviews}{57}{5}{345--384}.
\newblock
\begin{APACrefDOI} \doi{10.1115/1.1767847} \end{APACrefDOI}
\PrintBackRefs{\CurrentBib}

\bibitem [\protect \citeauthoryear {%
Oladyshkin%
, Mohammadi%
, Kroeker%
\BCBL {}\ \BBA {} Nowak%
}{%
Oladyshkin%
\ \protect \BOthers {.}}{%
{\protect \APACyear {2020}}%
}]{%
oladyshkin2020bayesian3}
\APACinsertmetastar {%
oladyshkin2020bayesian3}%
\begin{APACrefauthors}%
Oladyshkin, S.%
, Mohammadi, F.%
, Kroeker, I.%
\BCBL {}\ \BBA {} Nowak, W.%
\end{APACrefauthors}%
\unskip\
\newblock
\APACrefYearMonthDay{2020}{{\APACmonth{08}}}{}.
\newblock
{\BBOQ}\APACrefatitle {Bayesian3 {{Active Learning}} for the {{Gaussian Process
  Emulator Using Information Theory}}} {Bayesian3 {{Active Learning}} for the
  {{Gaussian Process Emulator Using Information Theory}}}.{\BBCQ}
\newblock
\APACjournalVolNumPages{Entropy}{22}{8}{890}.
\newblock
\begin{APACrefDOI} \doi{10.3390/e22080890} \end{APACrefDOI}
\PrintBackRefs{\CurrentBib}

\bibitem [\protect \citeauthoryear {%
Papanicolaou%
, Elhakeem%
, Krallis%
, Prakash%
\BCBL {}\ \BBA {} Edinger%
}{%
Papanicolaou%
\ \protect \BOthers {.}}{%
{\protect \APACyear {2008}}%
}]{%
papanicolaou2008sediment}
\APACinsertmetastar {%
papanicolaou2008sediment}%
\begin{APACrefauthors}%
Papanicolaou, A\BPBI T\BPBI N.%
, Elhakeem, M.%
, Krallis, G.%
, Prakash, S.%
\BCBL {}\ \BBA {} Edinger, J.%
\end{APACrefauthors}%
\unskip\
\newblock
\APACrefYearMonthDay{2008}{{\APACmonth{01}}}{}.
\newblock
{\BBOQ}\APACrefatitle {Sediment {{Transport Modeling Review}}---{{Current}} and
  {{Future Developments}}} {Sediment {{Transport Modeling
  Review}}---{{Current}} and {{Future Developments}}}.{\BBCQ}
\newblock
\APACjournalVolNumPages{Journal of Hydraulic Engineering}{134}{1}{1--14}.
\newblock
\begin{APACrefDOI} \doi{10.1061/(ASCE)0733-9429(2008)134:1(1)} \end{APACrefDOI}
\PrintBackRefs{\CurrentBib}

\bibitem [\protect \citeauthoryear {%
Pasternack%
}{%
Pasternack%
}{%
{\protect \APACyear {2020}}%
}]{%
pasternack2020river}
\APACinsertmetastar {%
pasternack2020river}%
\begin{APACrefauthors}%
Pasternack, G\BPBI B.%
\end{APACrefauthors}%
\unskip\
\newblock
\APACrefYearMonthDay{2020}{{\APACmonth{01}}}{}.
\newblock
{\BBOQ}\APACrefatitle {River {{Restoration}}: {{Disappointing}}, {{Nascent}},
  {{Yet Desperately Needed}}} {River {{Restoration}}: {{Disappointing}},
  {{Nascent}}, {{Yet Desperately Needed}}}.{\BBCQ}
\newblock
\BIn{} \APACrefbtitle {Reference {{Module}} in {{Earth Systems}} and
  {{Environmental Sciences}}} {Reference {{Module}} in {{Earth Systems}} and
  {{Environmental Sciences}}}\ (\PrintOrdinal{Second Edition}\ \BEd, \BVOL~6.2,
  \BPGS\ 1296--1324).
\newblock
\APACaddressPublisher{Omaha, NE, USA}{Elsevier}.
\newblock
\begin{APACrefDOI} \doi{10.1016/B978-0-12-409548-9.12449-2} \end{APACrefDOI}
\PrintBackRefs{\CurrentBib}

\bibitem [\protect \citeauthoryear {%
Pasternack%
\ \BBA {} Wyrick%
}{%
Pasternack%
\ \BBA {} Wyrick%
}{%
{\protect \APACyear {2017}}%
}]{%
pasternack2017flooddriven}
\APACinsertmetastar {%
pasternack2017flooddriven}%
\begin{APACrefauthors}%
Pasternack, G\BPBI B.%
\BCBT {}\ \BBA {} Wyrick, J\BPBI R.%
\end{APACrefauthors}%
\unskip\
\newblock
\APACrefYearMonthDay{2017}{}{}.
\newblock
{\BBOQ}\APACrefatitle {Flood-Driven Topographic Changes in a Gravel-Cobble
  River over Segment, Reach, and Morphological Unit Scales} {Flood-driven
  topographic changes in a gravel-cobble river over segment, reach, and
  morphological unit scales}.{\BBCQ}
\newblock
\APACjournalVolNumPages{Earth Surface Processes and
  Landforms}{42}{3}{487--502}.
\newblock
\begin{APACrefDOI} \doi{10.1002/esp.4064} \end{APACrefDOI}
\PrintBackRefs{\CurrentBib}

\bibitem [\protect \citeauthoryear {%
Rickenmann%
\ \BBA {} Recking%
}{%
Rickenmann%
\ \BBA {} Recking%
}{%
{\protect \APACyear {2011}}%
}]{%
rickenmann2011evaluation}
\APACinsertmetastar {%
rickenmann2011evaluation}%
\begin{APACrefauthors}%
Rickenmann, D.%
\BCBT {}\ \BBA {} Recking, A.%
\end{APACrefauthors}%
\unskip\
\newblock
\APACrefYearMonthDay{2011}{}{}.
\newblock
{\BBOQ}\APACrefatitle {Evaluation of Flow Resistance in Gravel-Bed Rivers
  through a Large Field Data Set} {Evaluation of flow resistance in gravel-bed
  rivers through a large field data set}.{\BBCQ}
\newblock
\APACjournalVolNumPages{Water Resources Research}{47}{}{W07538}.
\newblock
\begin{APACrefDOI} \doi{10.1029/2010WR009793} \end{APACrefDOI}
\PrintBackRefs{\CurrentBib}

\bibitem [\protect \citeauthoryear {%
Roni%
, Beechie%
, Pess%
\BCBL {}\ \BBA {} Hanson%
}{%
Roni%
\ \protect \BOthers {.}}{%
{\protect \APACyear {2015}}%
}]{%
roni2015wood}
\APACinsertmetastar {%
roni2015wood}%
\begin{APACrefauthors}%
Roni, P.%
, Beechie, T.%
, Pess, G.%
\BCBL {}\ \BBA {} Hanson, K.%
\end{APACrefauthors}%
\unskip\
\newblock
\APACrefYearMonthDay{2015}{}{}.
\newblock
{\BBOQ}\APACrefatitle {Wood Placement in River Restoration: Fact, Fiction, and
  Future Direction} {Wood placement in river restoration: Fact, fiction, and
  future direction}.{\BBCQ}
\newblock
\APACjournalVolNumPages{Canadian Journal of Fisheries and Aquatic
  Sciences}{72}{3}{466--478}.
\newblock
\begin{APACrefDOI} \doi{10.1139/cjfas-2014-0344} \end{APACrefDOI}
\PrintBackRefs{\CurrentBib}

\bibitem [\protect \citeauthoryear {%
Salmela%
\ \protect \BOthers {.}}{%
Salmela%
\ \protect \BOthers {.}}{%
{\protect \APACyear {2020}}%
}]{%
salmela2020morphological}
\APACinsertmetastar {%
salmela2020morphological}%
\begin{APACrefauthors}%
Salmela, J.%
, Kasvi, E.%
, Vaaja, M\BPBI T.%
, Kaartinen, H.%
, Kukko, A.%
, Jaakkola, A.%
\BCBL {}\ \BBA {} Alho, P.%
\end{APACrefauthors}%
\unskip\
\newblock
\APACrefYearMonthDay{2020}{{\APACmonth{03}}}{}.
\newblock
{\BBOQ}\APACrefatitle {Morphological Changes and Riffle-Pool Dynamics Related
  to Flow in a Meandering River Channel Based on a 5-Year Monitoring Period
  Using Close-Range Remote Sensing} {Morphological changes and riffle-pool
  dynamics related to flow in a meandering river channel based on a 5-year
  monitoring period using close-range remote sensing}.{\BBCQ}
\newblock
\APACjournalVolNumPages{Geomorphology}{352}{}{106982}.
\newblock
\begin{APACrefDOI} \doi{10.1016/j.geomorph.2019.106982} \end{APACrefDOI}
\PrintBackRefs{\CurrentBib}

\bibitem [\protect \citeauthoryear {%
Schalko%
\ \BBA {} Nepf%
}{%
Schalko%
\ \BBA {} Nepf%
}{%
{\protect \APACyear {2024}}%
}]{%
schalko2024enhanced}
\APACinsertmetastar {%
schalko2024enhanced}%
\begin{APACrefauthors}%
Schalko, I.%
\BCBT {}\ \BBA {} Nepf, H\BPBI M.%
\end{APACrefauthors}%
\unskip\
\newblock
\APACrefYearMonthDay{2024}{{\APACmonth{05}}}{}.
\newblock
{\BBOQ}\APACrefatitle {Enhanced Flow Variability and Morphological Changes
  through Individual Wood Placements on a Gravel Bed} {Enhanced flow
  variability and morphological changes through individual wood placements on a
  gravel bed}.{\BBCQ}
\newblock
\APACjournalVolNumPages{Geomorphology}{453}{}{109135}.
\newblock
\begin{APACrefDOI} \doi{10.1016/j.geomorph.2024.109135} \end{APACrefDOI}
\PrintBackRefs{\CurrentBib}

\bibitem [\protect \citeauthoryear {%
Schalko%
\ \protect \BOthers {.}}{%
Schalko%
\ \protect \BOthers {.}}{%
{\protect \APACyear {2024}}%
}]{%
schalko2024flow}
\APACinsertmetastar {%
schalko2024flow}%
\begin{APACrefauthors}%
Schalko, I.%
, Ponce, M.%
, Lassar, S.%
, Schwindt, S.%
, Haun, S.%
\BCBL {}\ \BBA {} Nepf, H.%
\end{APACrefauthors}%
\unskip\
\newblock
\APACrefYearMonthDay{2024}{}{}.
\newblock
{\BBOQ}\APACrefatitle {Flow and {{Turbulence Due To Wood Contribute}} to
  {{Declogging}} of {{Gravel Bed}}} {Flow and {{Turbulence Due To Wood
  Contribute}} to {{Declogging}} of {{Gravel Bed}}}.{\BBCQ}
\newblock
\APACjournalVolNumPages{Geophysical Research Letters}{51}{2}{e2023GL107507}.
\newblock
\begin{APACrefDOI} \doi{10.1029/2023GL107507} \end{APACrefDOI}
\PrintBackRefs{\CurrentBib}

\bibitem [\protect \citeauthoryear {%
Schalko%
, Wohl%
\BCBL {}\ \BBA {} Nepf%
}{%
Schalko%
\ \protect \BOthers {.}}{%
{\protect \APACyear {2021}}%
}]{%
schalko2021flow}
\APACinsertmetastar {%
schalko2021flow}%
\begin{APACrefauthors}%
Schalko, I.%
, Wohl, E.%
\BCBL {}\ \BBA {} Nepf, H\BPBI M.%
\end{APACrefauthors}%
\unskip\
\newblock
\APACrefYearMonthDay{2021}{{\APACmonth{04}}}{}.
\newblock
{\BBOQ}\APACrefatitle {Flow and Wake Characteristics Associated with Large Wood
  to Inform River Restoration} {Flow and wake characteristics associated with
  large wood to inform river restoration}.{\BBCQ}
\newblock
\APACjournalVolNumPages{Scientific Reports}{11}{1}{8644}.
\newblock
\begin{APACrefDOI} \doi{10.1038/s41598-021-87892-7} \end{APACrefDOI}
\PrintBackRefs{\CurrentBib}

\bibitem [\protect \citeauthoryear {%
Schwindt%
, Callau~Medrano%
\BCBL {}\ \protect \BOthers {.}}{%
Schwindt%
, Callau~Medrano%
\BCBL {}\ \protect \BOthers {.}}{%
{\protect \APACyear {2023}}%
}]{%
schwindt2023bayesian}
\APACinsertmetastar {%
schwindt2023bayesian}%
\begin{APACrefauthors}%
Schwindt, S.%
, Callau~Medrano, S.%
, Mouris, K.%
, Beckers, F.%
, Haun, S.%
, Nowak, W.%
\BDBL {}Oladyshkin, S.%
\end{APACrefauthors}%
\unskip\
\newblock
\APACrefYearMonthDay{2023}{}{}.
\newblock
{\BBOQ}\APACrefatitle {Bayesian {{Calibration Points}} to {{Misconceptions}} in
  {{Three-Dimensional Hydrodynamic Reservoir Modeling}}} {Bayesian
  {{Calibration Points}} to {{Misconceptions}} in {{Three-Dimensional
  Hydrodynamic Reservoir Modeling}}}.{\BBCQ}
\newblock
\APACjournalVolNumPages{Water Resources Research}{59}{3}{e2022WR033660}.
\newblock
\begin{APACrefDOI} \doi{10.1029/2022WR033660} \end{APACrefDOI}
\PrintBackRefs{\CurrentBib}

\bibitem [\protect \citeauthoryear {%
Schwindt%
, Negreiros%
\BCBL {}\ \protect \BOthers {.}}{%
Schwindt%
, Negreiros%
\BCBL {}\ \protect \BOthers {.}}{%
{\protect \APACyear {2023}}%
}]{%
schwindt2023fuzzylogic}
\APACinsertmetastar {%
schwindt2023fuzzylogic}%
\begin{APACrefauthors}%
Schwindt, S.%
, Negreiros, B.%
, Ponce, M.%
, Schalko, I.%
, Lassar, S.%
, Barros, R.%
\BCBL {}\ \BBA {} Haun, S.%
\end{APACrefauthors}%
\unskip\
\newblock
\APACrefYearMonthDay{2023}{{\APACmonth{11}}}{}.
\newblock
{\BBOQ}\APACrefatitle {Fuzzy-Logic Indicators for Riverbed de-Clogging Suggest
  Ecological Benefits of Large Wood} {Fuzzy-logic indicators for riverbed
  de-clogging suggest ecological benefits of large wood}.{\BBCQ}
\newblock
\APACjournalVolNumPages{Ecological Indicators}{155}{}{111045}.
\newblock
\begin{APACrefDOI} \doi{10.1016/j.ecolind.2023.111045} \end{APACrefDOI}
\PrintBackRefs{\CurrentBib}

\bibitem [\protect \citeauthoryear {%
Scolari%
, Fadul%
\BCBL {}\ \BBA {} Schwindt%
}{%
Scolari%
\ \protect \BOthers {.}}{%
{\protect \APACyear {2025}}%
}]{%
scolari2025hydromorphodynamic}
\APACinsertmetastar {%
scolari2025hydromorphodynamic}%
\begin{APACrefauthors}%
Scolari, F.%
, Fadul, M.%
\BCBL {}\ \BBA {} Schwindt, S.%
\end{APACrefauthors}%
\unskip\
\newblock
\APACrefYearMonthDay{2025}{{\APACmonth{03}}}{}.
\newblock
{\BBOQ}\APACrefatitle {Hydro-Morphodynamic Numerical Modeling Indicates Risk
  Zones for Riverbed Clogging} {Hydro-morphodynamic numerical modeling
  indicates risk zones for riverbed clogging}.{\BBCQ}
\newblock
\APACjournalVolNumPages{Scientific Reports}{15}{1}{10873}.
\newblock
\begin{APACrefDOI} \doi{10.1038/s41598-025-95150-3} \end{APACrefDOI}
\PrintBackRefs{\CurrentBib}

\bibitem [\protect \citeauthoryear {%
Smart%
}{%
Smart%
}{%
{\protect \APACyear {1999}}%
}]{%
smart1999coefficient}
\APACinsertmetastar {%
smart1999coefficient}%
\begin{APACrefauthors}%
Smart, G\BPBI M.%
\end{APACrefauthors}%
\unskip\
\newblock
\APACrefYearMonthDay{1999}{{\APACmonth{12}}}{}.
\newblock
{\BBOQ}\APACrefatitle {Coefficient of Friction for Flow Resistance in Alluvial
  Channels.} {Coefficient of friction for flow resistance in alluvial
  channels.}{\BBCQ}
\newblock
\APACjournalVolNumPages{Proceedings of the Institution of Civil Engineers -
  Water, Maritime and Energy}{136}{4}{205--210}.
\newblock
\begin{APACrefDOI} \doi{10.1680/iwtme.1999.31984} \end{APACrefDOI}
\PrintBackRefs{\CurrentBib}

\bibitem [\protect \citeauthoryear {%
Tassi%
\ \protect \BOthers {.}}{%
Tassi%
\ \protect \BOthers {.}}{%
{\protect \APACyear {2023}}%
}]{%
tassi2023gaia}
\APACinsertmetastar {%
tassi2023gaia}%
\begin{APACrefauthors}%
Tassi, P.%
, Benson, T.%
, Delinares, M.%
, Fontaine, J.%
, Huybrechts, N.%
, Kopmann, R.%
\BDBL {}Walther, R.%
\end{APACrefauthors}%
\unskip\
\newblock
\APACrefYearMonthDay{2023}{{\APACmonth{01}}}{}.
\newblock
{\BBOQ}\APACrefatitle {{{GAIA}} - a Unified Framework for Sediment Transport
  and Bed Evolution in Rivers, Coastal Seas and Transitional Waters in the
  {{TELEMAC-MASCARET}} Modelling System} {{{GAIA}} - a unified framework for
  sediment transport and bed evolution in rivers, coastal seas and transitional
  waters in the {{TELEMAC-MASCARET}} modelling system}.{\BBCQ}
\newblock
\APACjournalVolNumPages{Environmental Modelling \& Software}{159}{}{105544}.
\newblock
\begin{APACrefDOI} \doi{10.1016/j.envsoft.2022.105544} \end{APACrefDOI}
\PrintBackRefs{\CurrentBib}

\bibitem [\protect \citeauthoryear {%
Villaret%
\ \protect \BOthers {.}}{%
Villaret%
\ \protect \BOthers {.}}{%
{\protect \APACyear {2016}}%
}]{%
villaret2016firstorder}
\APACinsertmetastar {%
villaret2016firstorder}%
\begin{APACrefauthors}%
Villaret, C.%
, Kopmann, R.%
, Wyncoll, D.%
, Riehme, J.%
, Merkel, U.%
\BCBL {}\ \BBA {} Naumann, U.%
\end{APACrefauthors}%
\unskip\
\newblock
\APACrefYearMonthDay{2016}{{\APACmonth{05}}}{}.
\newblock
{\BBOQ}\APACrefatitle {First-Order Uncertainty Analysis Using {{Algorithmic
  Differentiation}} of Morphodynamic Models} {First-order uncertainty analysis
  using {{Algorithmic Differentiation}} of morphodynamic models}.{\BBCQ}
\newblock
\APACjournalVolNumPages{Computers \& Geosciences}{90}{}{144--151}.
\newblock
\begin{APACrefDOI} \doi{10.1016/j.cageo.2015.10.012} \end{APACrefDOI}
\PrintBackRefs{\CurrentBib}

\bibitem [\protect \citeauthoryear {%
Wadeson%
}{%
Wadeson%
}{%
{\protect \APACyear {1994}}%
}]{%
wadeson1994geomorphological}
\APACinsertmetastar {%
wadeson1994geomorphological}%
\begin{APACrefauthors}%
Wadeson, R\BPBI A.%
\end{APACrefauthors}%
\unskip\
\newblock
\APACrefYearMonthDay{1994}{{\APACmonth{01}}}{}.
\newblock
{\BBOQ}\APACrefatitle {A {{Geomorphological Approach}} to the
  {{Identification}} and {{Classification}} of {{Instream Flow Environments}}}
  {A {{Geomorphological Approach}} to the {{Identification}} and
  {{Classification}} of {{Instream Flow Environments}}}.{\BBCQ}
\newblock
\APACjournalVolNumPages{Southern African Journal of Aquatic
  Sciences}{20}{1-2}{38--61}.
\newblock
\begin{APACrefDOI} \doi{10.1080/10183469.1994.9631349} \end{APACrefDOI}
\PrintBackRefs{\CurrentBib}

\bibitem [\protect \citeauthoryear {%
Webber%
}{%
Webber%
}{%
{\protect \APACyear {2018}}%
}]{%
webber2018fluid}
\APACinsertmetastar {%
webber2018fluid}%
\begin{APACrefauthors}%
Webber, N\BPBI B.%
\end{APACrefauthors}%
\unskip\
\newblock
\APACrefYear{2018}.
\newblock
\APACrefbtitle {Fluid {{Mechanics}} for {{Civil Engineers}}: {{SI}} Edition}
  {Fluid {{Mechanics}} for {{Civil Engineers}}: {{SI}} edition}.
\newblock
\APACaddressPublisher{London}{CRC Press}.
\newblock
\begin{APACrefDOI} \doi{10.1201/9781315273426} \end{APACrefDOI}
\PrintBackRefs{\CurrentBib}

\bibitem [\protect \citeauthoryear {%
Williams%
, Brasington%
\BCBL {}\ \BBA {} Hicks%
}{%
Williams%
\ \protect \BOthers {.}}{%
{\protect \APACyear {2016}}%
}]{%
williams2016numerical}
\APACinsertmetastar {%
williams2016numerical}%
\begin{APACrefauthors}%
Williams, R\BPBI D.%
, Brasington, J.%
\BCBL {}\ \BBA {} Hicks, D\BPBI M.%
\end{APACrefauthors}%
\unskip\
\newblock
\APACrefYearMonthDay{2016}{}{}.
\newblock
{\BBOQ}\APACrefatitle {Numerical {{Modelling}} of {{Braided River
  Morphodynamics}}: {{Review}} and {{Future Challenges}}} {Numerical
  {{Modelling}} of {{Braided River Morphodynamics}}: {{Review}} and {{Future
  Challenges}}}.{\BBCQ}
\newblock
\APACjournalVolNumPages{Geography Compass}{10}{3}{102--127}.
\newblock
\begin{APACrefDOI} \doi{10.1111/gec3.12260} \end{APACrefDOI}
\PrintBackRefs{\CurrentBib}

\bibitem [\protect \citeauthoryear {%
Wong%
\ \BBA {} Parker%
}{%
Wong%
\ \BBA {} Parker%
}{%
{\protect \APACyear {2006}}%
}]{%
wong2006reanalysis}
\APACinsertmetastar {%
wong2006reanalysis}%
\begin{APACrefauthors}%
Wong, M.%
\BCBT {}\ \BBA {} Parker, G.%
\end{APACrefauthors}%
\unskip\
\newblock
\APACrefYearMonthDay{2006}{}{}.
\newblock
{\BBOQ}\APACrefatitle {Reanalysis and {{Correction}} of {{Bed-Load Relation}}
  of {{Meyer-Peter}} and {{M{\"u}ller Using Their Own Database}}} {Reanalysis
  and {{Correction}} of {{Bed-Load Relation}} of {{Meyer-Peter}} and
  {{M{\"u}ller Using Their Own Database}}}.{\BBCQ}
\newblock
\APACjournalVolNumPages{Journal of Hydraulic Engineering}{132}{11}{1159--1168}.
\newblock
\begin{APACrefDOI} \doi{10.1061/(ASCE)0733-9429(2006)132:11(1159)}
  \end{APACrefDOI}
\PrintBackRefs{\CurrentBib}

\bibitem [\protect \citeauthoryear {%
Woodworth%
\ \BBA {} Pasternack%
}{%
Woodworth%
\ \BBA {} Pasternack%
}{%
{\protect \APACyear {2022}}%
}]{%
woodworth2022are}
\APACinsertmetastar {%
woodworth2022are}%
\begin{APACrefauthors}%
Woodworth, K\BPBI A.%
\BCBT {}\ \BBA {} Pasternack, G\BPBI B.%
\end{APACrefauthors}%
\unskip\
\newblock
\APACrefYearMonthDay{2022}{{\APACmonth{04}}}{}.
\newblock
{\BBOQ}\APACrefatitle {Are Dynamic Fluvial Morphological Unit Assemblages
  Statistically Stationary through Floods of Less than Ten Times Bankfull
  Discharge?} {Are dynamic fluvial morphological unit assemblages statistically
  stationary through floods of less than ten times bankfull discharge?}{\BBCQ}
\newblock
\APACjournalVolNumPages{Geomorphology}{403}{}{108135}.
\newblock
\begin{APACrefDOI} \doi{10.1016/j.geomorph.2022.108135} \end{APACrefDOI}
\PrintBackRefs{\CurrentBib}

\bibitem [\protect \citeauthoryear {%
Wyrick%
\ \BBA {} Pasternack%
}{%
Wyrick%
\ \BBA {} Pasternack%
}{%
{\protect \APACyear {2012}}%
}]{%
wyrick2012landforms}
\APACinsertmetastar {%
wyrick2012landforms}%
\begin{APACrefauthors}%
Wyrick, J\BPBI R.%
\BCBT {}\ \BBA {} Pasternack, G\BPBI B.%
\end{APACrefauthors}%
\unskip\
\newblock
\APACrefYearMonthDay{2012}{}{}.
\newblock
\APACrefbtitle {Landforms of the Lower {{Yuba River}}} {Landforms of the lower
  {{Yuba River}}}\ \APACbVolEdTR{}{\BTR{}}.
\newblock
\APACaddressInstitution{Davis, CA, USA}{University of California, Davis}.
\PrintBackRefs{\CurrentBib}

\bibitem [\protect \citeauthoryear {%
Wyrick%
\ \BBA {} Pasternack%
}{%
Wyrick%
\ \BBA {} Pasternack%
}{%
{\protect \APACyear {2014}}%
}]{%
wyrick2014geospatial}
\APACinsertmetastar {%
wyrick2014geospatial}%
\begin{APACrefauthors}%
Wyrick, J\BPBI R.%
\BCBT {}\ \BBA {} Pasternack, G\BPBI B.%
\end{APACrefauthors}%
\unskip\
\newblock
\APACrefYearMonthDay{2014}{}{}.
\newblock
{\BBOQ}\APACrefatitle {Geospatial Organization of Fluvial Landforms in a
  Gravel-Cobble River: {{Beyond}} the Riffle-Pool Couplet} {Geospatial
  organization of fluvial landforms in a gravel-cobble river: {{Beyond}} the
  riffle-pool couplet}.{\BBCQ}
\newblock
\APACjournalVolNumPages{Geomorphology}{213}{Supplement C}{48--65}.
\newblock
\begin{APACrefDOI} \doi{10.1016/j.geomorph.2013.12.040} \end{APACrefDOI}
\PrintBackRefs{\CurrentBib}

\bibitem [\protect \citeauthoryear {%
Wyrick%
, Senter%
\BCBL {}\ \BBA {} Pasternack%
}{%
Wyrick%
\ \protect \BOthers {.}}{%
{\protect \APACyear {2014}}%
}]{%
wyrick2014revealing}
\APACinsertmetastar {%
wyrick2014revealing}%
\begin{APACrefauthors}%
Wyrick, J\BPBI R.%
, Senter, A\BPBI E.%
\BCBL {}\ \BBA {} Pasternack, G\BPBI B.%
\end{APACrefauthors}%
\unskip\
\newblock
\APACrefYearMonthDay{2014}{}{}.
\newblock
{\BBOQ}\APACrefatitle {Revealing the Natural Complexity of Fluvial Morphology
  through {{2D}} Hydrodynamic Delineation of River Landforms} {Revealing the
  natural complexity of fluvial morphology through {{2D}} hydrodynamic
  delineation of river landforms}.{\BBCQ}
\newblock
\APACjournalVolNumPages{Geomorphology}{210}{Supplement C}{14--22}.
\newblock
\begin{APACrefDOI} \doi{10.1016/j.geomorph.2013.12.013} \end{APACrefDOI}
\PrintBackRefs{\CurrentBib}

\bibitem [\protect \citeauthoryear {%
Yassine%
, Cassan%
, Roux%
, Frysou%
\BCBL {}\ \BBA {} P{\'e}r{\`e}s%
}{%
Yassine%
\ \protect \BOthers {.}}{%
{\protect \APACyear {2023}}%
}]{%
yassine2023numerical}
\APACinsertmetastar {%
yassine2023numerical}%
\begin{APACrefauthors}%
Yassine, R.%
, Cassan, L.%
, Roux, H.%
, Frysou, O.%
\BCBL {}\ \BBA {} P{\'e}r{\`e}s, F.%
\end{APACrefauthors}%
\unskip\
\newblock
\APACrefYearMonthDay{2023}{{\APACmonth{11}}}{}.
\newblock
{\BBOQ}\APACrefatitle {Numerical Modelling of the Evolution of a River Reach
  with a Complex Morphology to Help Define Future Sustainable Restoration
  Decisions} {Numerical modelling of the evolution of a river reach with a
  complex morphology to help define future sustainable restoration
  decisions}.{\BBCQ}
\newblock
\APACjournalVolNumPages{Earth Surface Dynamics}{11}{6}{1199--1221}.
\newblock
\begin{APACrefDOI} \doi{10.5194/esurf-11-1199-2023} \end{APACrefDOI}
\PrintBackRefs{\CurrentBib}

\bibitem [\protect \citeauthoryear {%
Zauner%
\ \protect \BOthers {.}}{%
Zauner%
\ \protect \BOthers {.}}{%
{\protect \APACyear {2020}}%
}]{%
zauner2020wie}
\APACinsertmetastar {%
zauner2020wie}%
\begin{APACrefauthors}%
Zauner, G.%
, Lauber, W.%
, Jung, M.%
, Ratschan, C.%
, Sch{\"o}fbenker, M.%
\BCBL {}\ \BBA {} Schmalfu{\ss}, R.%
\end{APACrefauthors}%
\unskip\
\newblock
\APACrefYearMonthDay{2020}{{\APACmonth{05}}}{}.
\newblock
{\BBOQ}\APACrefatitle {{Wie erreicht man das "gute {\"o}kologische Potenzial"?
  Fallbeispiel Innstauraum Egglfing-Obernberg}} {{Wie erreicht man das "gute
  {\"o}kologische Potenzial"? Fallbeispiel Innstauraum
  Egglfing-Obernberg}}.{\BBCQ}
\newblock
\APACjournalVolNumPages{{\"O}sterreichische Wasser- und
  Abfallwirtschaft}{}{}{}.
\newblock
\begin{APACrefDOI} \doi{10.1007/s00506-020-00672-x} \end{APACrefDOI}
\PrintBackRefs{\CurrentBib}

\end{thebibliography}
